
     RDKit          3D

 14 14  0  0  0  0  0  0  0  0999 V2000
   -2.3033   -0.5895   -1.0586 F   0  0  0  0  0  0  0  0  0  0  0  0
   -1.4892   -0.4840    0.0426 C   0  0  0  0  0  0  0  0  0  0  0  0
   -0.5385    0.6584   -0.1986 C   0  0  1  0  0  0  0  0  0  0  0  0
    0.4706    1.0143    0.8289 C   0  0  0  0  0  0  0  0  0  0  0  0
    0.8680    0.2776   -0.4871 C   0  0  1  0  0  0  0  0  0  0  0  0
    1.3588   -1.0311   -0.3779 N   0  0  0  0  0  0  0  0  0  0  0  0
   -0.9613   -1.4230    0.2266 H   0  0  0  0  0  0  0  0  0  0  0  0
   -2.1527   -0.3042    0.9172 H   0  0  0  0  0  0  0  0  0  0  0  0
   -0.9793    1.5194   -0.7430 H   0  0  0  0  0  0  0  0  0  0  0  0
    0.5055    0.3921    1.7478 H   0  0  0  0  0  0  0  0  0  0  0  0
    0.8102    2.0486    0.9243 H   0  0  0  0  0  0  0  0  0  0  0  0
    1.3974    0.9270   -1.2363 H   0  0  0  0  0  0  0  0  0  0  0  0
    0.8056   -1.8010   -0.7202 H   0  0  0  0  0  0  0  0  0  0  0  0
    2.2082   -1.2045    0.1342 H   0  0  0  0  0  0  0  0  0  0  0  0
  1  2  1  0
  2  3  1  0
  3  4  1  0
  4  5  1  0
  5  6  1  0
  5  3  1  0
  2  7  1  0
  2  8  1  0
  3  9  1  6
  4 10  1  0
  4 11  1  0
  5 12  1  6
  6 13  1  0
  6 14  1  0
M  END
$$$$

     RDKit          3D

 14 14  0  0  0  0  0  0  0  0999 V2000
   -0.9944   -0.1684    1.6875 F   0  0  0  0  0  0  0  0  0  0  0  0
   -0.9708    0.4241    0.4516 C   0  0  0  0  0  0  0  0  0  0  0  0
   -1.7080    1.5399    0.2716 F   0  0  0  0  0  0  0  0  0  0  0  0
   -1.1620   -0.6708   -0.6099 C   0  0  0  0  0  0  0  0  0  0  0  0
    0.2981   -1.0266   -0.2787 C   0  0  0  0  0  0  0  0  0  0  0  0
    0.4610    0.4833   -0.1022 C   0  0  0  0  0  0  0  0  0  0  0  0
    1.4559    0.8774    0.8321 N   0  0  0  0  0  0  0  0  0  0  0  0
   -1.1810   -0.2286   -1.6150 H   0  0  0  0  0  0  0  0  0  0  0  0
   -1.8895   -1.4347   -0.3609 H   0  0  0  0  0  0  0  0  0  0  0  0
    0.8455   -1.4660   -1.1076 H   0  0  0  0  0  0  0  0  0  0  0  0
    0.3354   -1.5524    0.6991 H   0  0  0  0  0  0  0  0  0  0  0  0
    0.4852    0.9459   -1.1066 H   0  0  0  0  0  0  0  0  0  0  0  0
    1.6663    1.8942    0.6724 H   0  0  0  0  0  0  0  0  0  0  0  0
    2.3582    0.3827    0.5666 H   0  0  0  0  0  0  0  0  0  0  0  0
  1  2  1  0
  2  3  1  0
  2  4  1  0
  4  5  1  0
  5  6  1  0
  6  7  1  0
  6  2  1  0
  4  8  1  0
  4  9  1  0
  5 10  1  0
  5 11  1  0
  6 12  1  0
  7 13  1  0
  7 14  1  0
M  END
$$$$

     RDKit          3D

 13 12  0  0  0  0  0  0  0  0999 V2000
   -1.4462    0.8558    0.2370 N   0  0  0  0  0  0  0  0  0  0  0  0
   -0.8199   -0.4458    0.4622 C   0  0  0  0  0  0  0  0  0  0  0  0
    0.4168   -0.6211   -0.3598 C   0  0  0  0  0  0  0  0  0  0  0  0
    1.4758    0.3968   -0.0798 C   0  0  0  0  0  0  0  0  0  0  0  0
    1.0376    1.6903   -0.3285 F   0  0  0  0  0  0  0  0  0  0  0  0
    2.5449    0.1183   -0.9394 F   0  0  0  0  0  0  0  0  0  0  0  0
    1.9532    0.3490    1.2012 F   0  0  0  0  0  0  0  0  0  0  0  0
   -2.4573    0.7536    0.5513 H   0  0  0  0  0  0  0  0  0  0  0  0
   -1.5186    0.9385   -0.8168 H   0  0  0  0  0  0  0  0  0  0  0  0
   -1.5486   -1.2252    0.1356 H   0  0  0  0  0  0  0  0  0  0  0  0
   -0.6291   -0.6229    1.5259 H   0  0  0  0  0  0  0  0  0  0  0  0
    0.1612   -0.5714   -1.4355 H   0  0  0  0  0  0  0  0  0  0  0  0
    0.8301   -1.6159   -0.1534 H   0  0  0  0  0  0  0  0  0  0  0  0
  1  2  1  0
  2  3  1  0
  3  4  1  0
  4  5  1  0
  4  6  1  0
  4  7  1  0
  1  8  1  0
  1  9  1  0
  2 10  1  0
  2 11  1  0
  3 12  1  0
  3 13  1  0
M  END
$$$$
